<routes>
            <vType accel="1.0" decel="4.5" id="standard_car" length="5.0" minGap="2.5" maxSpeed="25" sigma="0.5" />

            <route id="W_N" edges="1i 4o"/>
            <route id="W_E" edges="1i 2o"/>
            <route id="W_S" edges="1i 3o"/>
            <route id="N_W" edges="4i 1o"/>
            <route id="N_E" edges="4i 2o"/>
            <route id="N_S" edges="4i 3o"/>
            <route id="E_W" edges="2i 1o"/>
            <route id="E_N" edges="2i 4o"/>
            <route id="E_S" edges="2i 3o"/>
            <route id="S_W" edges="3i 1o"/>
            <route id="S_N" edges="3i 4o"/>
            <route id="S_E" edges="3i 2o"/>
    <vehicle id="S_E_0" type="standard_car" route="S_E" depart="0.0" departLane="random" departSpeed="10" />
    <vehicle id="S_N_1" type="standard_car" route="S_N" depart="0.0" departLane="random" departSpeed="10" />
    <vehicle id="W_S_2" type="standard_car" route="W_S" depart="0.0" departLane="random" departSpeed="10" />
    <vehicle id="N_W_3" type="standard_car" route="N_W" depart="0.0" departLane="random" departSpeed="10" />
    <vehicle id="S_N_4" type="standard_car" route="S_N" depart="0.0" departLane="random" departSpeed="10" />
    <vehicle id="N_W_5" type="standard_car" route="N_W" depart="0.0" departLane="random" departSpeed="10" />
    <vehicle id="N_W_6" type="standard_car" route="N_W" depart="0.0" departLane="random" departSpeed="10" />
    <vehicle id="N_E_7" type="standard_car" route="N_E" depart="0.0" departLane="random" departSpeed="10" />
    <vehicle id="E_W_8" type="standard_car" route="E_W" depart="0.0" departLane="random" departSpeed="10" />
    <vehicle id="S_E_9" type="standard_car" route="S_E" depart="0.0" departLane="random" departSpeed="10" />
    <vehicle id="S_E_10" type="standard_car" route="S_E" depart="0.0" departLane="random" departSpeed="10" />
    <vehicle id="E_S_11" type="standard_car" route="E_S" depart="0.0" departLane="random" departSpeed="10" />
    <vehicle id="N_E_12" type="standard_car" route="N_E" depart="0.0" departLane="random" departSpeed="10" />
    <vehicle id="E_N_13" type="standard_car" route="E_S" depart="0.0" departLane="random" departSpeed="10" />
    <vehicle id="W_N_14" type="standard_car" route="W_N" depart="0.0" departLane="random" departSpeed="10" />
    <vehicle id="W_S_15" type="standard_car" route="W_S" depart="0.0" departLane="random" departSpeed="10" />
    <vehicle id="S_E_16" type="standard_car" route="S_E" depart="0.0" departLane="random" departSpeed="10" />
    <vehicle id="E_W_17" type="standard_car" route="E_W" depart="0.0" departLane="random" departSpeed="10" />
    <vehicle id="S_N_18" type="standard_car" route="S_N" depart="0.0" departLane="random" departSpeed="10" />
    <vehicle id="N_W_19" type="standard_car" route="N_W" depart="0.0" departLane="random" departSpeed="10" />
    <vehicle id="N_E_20" type="standard_car" route="N_E" depart="0.0" departLane="random" departSpeed="10" />
    <vehicle id="S_N_21" type="standard_car" route="S_N" depart="0.0" departLane="random" departSpeed="10" />
    <vehicle id="E_N_22" type="standard_car" route="E_S" depart="0.0" departLane="random" departSpeed="10" />
    <vehicle id="S_W_23" type="standard_car" route="S_W" depart="0.0" departLane="random" departSpeed="10" />
    <vehicle id="N_W_24" type="standard_car" route="N_W" depart="0.0" departLane="random" departSpeed="10" />
    <vehicle id="S_E_25" type="standard_car" route="S_E" depart="0.0" departLane="random" departSpeed="10" />
    <vehicle id="E_W_26" type="standard_car" route="E_W" depart="0.0" departLane="random" departSpeed="10" />
    <vehicle id="S_E_27" type="standard_car" route="S_E" depart="0.0" departLane="random" departSpeed="10" />
    <vehicle id="S_W_28" type="standard_car" route="S_W" depart="0.0" departLane="random" departSpeed="10" />
    <vehicle id="N_S_29" type="standard_car" route="N_S" depart="0.0" departLane="random" departSpeed="10" />
    <vehicle id="S_E_30" type="standard_car" route="S_E" depart="0.0" departLane="random" departSpeed="10" />
    <vehicle id="S_E_31" type="standard_car" route="S_E" depart="0.0" departLane="random" departSpeed="10" />
    <vehicle id="S_W_32" type="standard_car" route="S_W" depart="0.0" departLane="random" departSpeed="10" />
    <vehicle id="N_W_33" type="standard_car" route="N_W" depart="0.0" departLane="random" departSpeed="10" />
    <vehicle id="S_E_34" type="standard_car" route="S_E" depart="0.0" departLane="random" departSpeed="10" />
    <vehicle id="S_W_35" type="standard_car" route="S_W" depart="0.0" departLane="random" departSpeed="10" />
    <vehicle id="N_E_36" type="standard_car" route="N_E" depart="0.0" departLane="random" departSpeed="10" />
    <vehicle id="N_W_37" type="standard_car" route="N_W" depart="0.0" departLane="random" departSpeed="10" />
    <vehicle id="S_W_38" type="standard_car" route="S_W" depart="0.0" departLane="random" departSpeed="10" />
    <vehicle id="W_E_39" type="standard_car" route="W_E" depart="0.0" departLane="random" departSpeed="10" />
    <vehicle id="W_S_40" type="standard_car" route="W_S" depart="0.0" departLane="random" departSpeed="10" />
    <vehicle id="N_W_41" type="standard_car" route="N_W" depart="0.0" departLane="random" departSpeed="10" />
    <vehicle id="N_E_42" type="standard_car" route="N_E" depart="0.0" departLane="random" departSpeed="10" />
    <vehicle id="N_E_43" type="standard_car" route="N_E" depart="0.0" departLane="random" departSpeed="10" />
    <vehicle id="N_E_44" type="standard_car" route="N_E" depart="0.0" departLane="random" departSpeed="10" />
    <vehicle id="S_W_45" type="standard_car" route="S_W" depart="0.0" departLane="random" departSpeed="10" />
    <vehicle id="N_W_46" type="standard_car" route="N_W" depart="0.0" departLane="random" departSpeed="10" />
    <vehicle id="S_W_47" type="standard_car" route="S_W" depart="0.0" departLane="random" departSpeed="10" />
    <vehicle id="E_S_48" type="standard_car" route="E_S" depart="0.0" departLane="random" departSpeed="10" />
    <vehicle id="E_W_49" type="standard_car" route="E_W" depart="0.0" departLane="random" departSpeed="10" />
    <vehicle id="N_E_50" type="standard_car" route="N_E" depart="0.0" departLane="random" departSpeed="10" />
    <vehicle id="N_W_51" type="standard_car" route="N_W" depart="0.0" departLane="random" departSpeed="10" />
    <vehicle id="S_W_52" type="standard_car" route="S_W" depart="0.0" departLane="random" departSpeed="10" />
    <vehicle id="N_W_53" type="standard_car" route="N_W" depart="0.0" departLane="random" departSpeed="10" />
    <vehicle id="W_S_54" type="standard_car" route="W_S" depart="0.0" departLane="random" departSpeed="10" />
    <vehicle id="E_S_55" type="standard_car" route="E_S" depart="0.0" departLane="random" departSpeed="10" />
    <vehicle id="W_E_56" type="standard_car" route="W_E" depart="0.0" departLane="random" departSpeed="10" />
    <vehicle id="N_W_57" type="standard_car" route="N_W" depart="0.0" departLane="random" departSpeed="10" />
    <vehicle id="S_W_58" type="standard_car" route="S_W" depart="0.0" departLane="random" departSpeed="10" />
    <vehicle id="S_W_59" type="standard_car" route="S_W" depart="0.0" departLane="random" departSpeed="10" />
    <vehicle id="S_W_60" type="standard_car" route="S_W" depart="0.0" departLane="random" departSpeed="10" />
    <vehicle id="E_N_61" type="standard_car" route="E_S" depart="0.0" departLane="random" departSpeed="10" />
    <vehicle id="S_W_62" type="standard_car" route="S_W" depart="0.0" departLane="random" departSpeed="10" />
    <vehicle id="W_S_63" type="standard_car" route="W_S" depart="0.0" departLane="random" departSpeed="10" />
    <vehicle id="S_E_64" type="standard_car" route="S_E" depart="0.0" departLane="random" departSpeed="10" />
    <vehicle id="S_N_65" type="standard_car" route="S_N" depart="0.0" departLane="random" departSpeed="10" />
    <vehicle id="S_W_66" type="standard_car" route="S_W" depart="0.0" departLane="random" departSpeed="10" />
    <vehicle id="S_W_67" type="standard_car" route="S_W" depart="0.0" departLane="random" departSpeed="10" />
    <vehicle id="S_E_68" type="standard_car" route="S_E" depart="0.0" departLane="random" departSpeed="10" />
    <vehicle id="S_W_69" type="standard_car" route="S_W" depart="0.0" departLane="random" departSpeed="10" />
    <vehicle id="N_E_70" type="standard_car" route="N_E" depart="0.0" departLane="random" departSpeed="10" />
    <vehicle id="S_W_71" type="standard_car" route="S_W" depart="0.0" departLane="random" departSpeed="10" />
    <vehicle id="S_E_72" type="standard_car" route="S_E" depart="600.0" departLane="random" departSpeed="10" />
    <vehicle id="W_E_73" type="standard_car" route="W_E" depart="600.0" departLane="random" departSpeed="10" />
    <vehicle id="N_W_74" type="standard_car" route="N_W" depart="600.0" departLane="random" departSpeed="10" />
    <vehicle id="N_W_75" type="standard_car" route="N_W" depart="600.0" departLane="random" departSpeed="10" />
    <vehicle id="S_N_76" type="standard_car" route="S_N" depart="600.0" departLane="random" departSpeed="10" />
    <vehicle id="S_E_77" type="standard_car" route="S_E" depart="600.0" departLane="random" departSpeed="10" />
    <vehicle id="E_N_78" type="standard_car" route="E_S" depart="600.0" departLane="random" departSpeed="10" />
    <vehicle id="N_S_79" type="standard_car" route="N_S" depart="600.0" departLane="random" departSpeed="10" />
    <vehicle id="S_N_80" type="standard_car" route="S_N" depart="600.0" departLane="random" departSpeed="10" />
    <vehicle id="N_E_81" type="standard_car" route="N_E" depart="600.0" departLane="random" departSpeed="10" />
    <vehicle id="S_N_82" type="standard_car" route="S_N" depart="600.0" departLane="random" departSpeed="10" />
    <vehicle id="S_E_83" type="standard_car" route="S_E" depart="600.0" departLane="random" departSpeed="10" />
    <vehicle id="E_S_84" type="standard_car" route="E_S" depart="600.0" departLane="random" departSpeed="10" />
    <vehicle id="S_N_85" type="standard_car" route="S_N" depart="600.0" departLane="random" departSpeed="10" />
    <vehicle id="S_W_86" type="standard_car" route="S_W" depart="600.0" departLane="random" departSpeed="10" />
    <vehicle id="N_E_87" type="standard_car" route="N_E" depart="600.0" departLane="random" departSpeed="10" />
    <vehicle id="S_E_88" type="standard_car" route="S_E" depart="600.0" departLane="random" departSpeed="10" />
    <vehicle id="S_E_89" type="standard_car" route="S_E" depart="600.0" departLane="random" departSpeed="10" />
    <vehicle id="N_W_90" type="standard_car" route="N_W" depart="600.0" departLane="random" departSpeed="10" />
    <vehicle id="S_W_91" type="standard_car" route="S_W" depart="600.0" departLane="random" departSpeed="10" />
    <vehicle id="W_E_92" type="standard_car" route="W_E" depart="600.0" departLane="random" departSpeed="10" />
    <vehicle id="S_W_93" type="standard_car" route="S_W" depart="600.0" departLane="random" departSpeed="10" />
    <vehicle id="W_S_94" type="standard_car" route="W_S" depart="600.0" departLane="random" departSpeed="10" />
    <vehicle id="N_W_95" type="standard_car" route="N_W" depart="600.0" departLane="random" departSpeed="10" />
    <vehicle id="N_W_96" type="standard_car" route="N_W" depart="600.0" departLane="random" departSpeed="10" />
    <vehicle id="N_E_97" type="standard_car" route="N_E" depart="600.0" departLane="random" departSpeed="10" />
    <vehicle id="S_W_98" type="standard_car" route="S_W" depart="600.0" departLane="random" departSpeed="10" />
    <vehicle id="S_E_99" type="standard_car" route="S_E" depart="600.0" departLane="random" departSpeed="10" />
    <vehicle id="S_E_100" type="standard_car" route="S_E" depart="600.0" departLane="random" departSpeed="10" />
    <vehicle id="E_S_101" type="standard_car" route="E_S" depart="600.0" departLane="random" departSpeed="10" />
    <vehicle id="N_W_102" type="standard_car" route="N_W" depart="600.0" departLane="random" departSpeed="10" />
    <vehicle id="W_S_103" type="standard_car" route="W_S" depart="600.0" departLane="random" departSpeed="10" />
    <vehicle id="S_E_104" type="standard_car" route="S_E" depart="600.0" departLane="random" departSpeed="10" />
    <vehicle id="N_E_105" type="standard_car" route="N_E" depart="600.0" departLane="random" departSpeed="10" />
    <vehicle id="S_E_106" type="standard_car" route="S_E" depart="600.0" departLane="random" departSpeed="10" />
    <vehicle id="S_E_107" type="standard_car" route="S_E" depart="600.0" departLane="random" departSpeed="10" />
    <vehicle id="N_E_108" type="standard_car" route="N_E" depart="600.0" departLane="random" departSpeed="10" />
    <vehicle id="S_N_109" type="standard_car" route="S_N" depart="600.0" departLane="random" departSpeed="10" />
    <vehicle id="N_E_110" type="standard_car" route="N_E" depart="600.0" departLane="random" departSpeed="10" />
    <vehicle id="N_W_111" type="standard_car" route="N_W" depart="600.0" departLane="random" departSpeed="10" />
    <vehicle id="S_W_112" type="standard_car" route="S_W" depart="600.0" departLane="random" departSpeed="10" />
    <vehicle id="S_W_113" type="standard_car" route="S_W" depart="600.0" departLane="random" departSpeed="10" />
    <vehicle id="S_W_114" type="standard_car" route="S_W" depart="600.0" departLane="random" departSpeed="10" />
    <vehicle id="S_E_115" type="standard_car" route="S_E" depart="600.0" departLane="random" departSpeed="10" />
    <vehicle id="S_W_116" type="standard_car" route="S_W" depart="600.0" departLane="random" departSpeed="10" />
    <vehicle id="S_W_117" type="standard_car" route="S_W" depart="600.0" departLane="random" departSpeed="10" />
    <vehicle id="S_W_118" type="standard_car" route="S_W" depart="600.0" departLane="random" departSpeed="10" />
    <vehicle id="S_E_119" type="standard_car" route="S_E" depart="600.0" departLane="random" departSpeed="10" />
    <vehicle id="W_E_120" type="standard_car" route="W_E" depart="600.0" departLane="random" departSpeed="10" />
    <vehicle id="E_W_121" type="standard_car" route="E_W" depart="600.0" departLane="random" departSpeed="10" />
    <vehicle id="E_W_122" type="standard_car" route="E_W" depart="600.0" departLane="random" departSpeed="10" />
    <vehicle id="E_S_123" type="standard_car" route="E_S" depart="600.0" departLane="random" departSpeed="10" />
    <vehicle id="S_W_124" type="standard_car" route="S_W" depart="600.0" departLane="random" departSpeed="10" />
    <vehicle id="S_E_125" type="standard_car" route="S_E" depart="600.0" departLane="random" departSpeed="10" />
    <vehicle id="S_W_126" type="standard_car" route="S_W" depart="600.0" departLane="random" departSpeed="10" />
    <vehicle id="S_E_127" type="standard_car" route="S_E" depart="600.0" departLane="random" departSpeed="10" />
    <vehicle id="N_W_128" type="standard_car" route="N_W" depart="600.0" departLane="random" departSpeed="10" />
    <vehicle id="N_W_129" type="standard_car" route="N_W" depart="600.0" departLane="random" departSpeed="10" />
    <vehicle id="W_S_130" type="standard_car" route="W_S" depart="600.0" departLane="random" departSpeed="10" />
    <vehicle id="N_W_131" type="standard_car" route="N_W" depart="600.0" departLane="random" departSpeed="10" />
    <vehicle id="S_W_132" type="standard_car" route="S_W" depart="600.0" departLane="random" departSpeed="10" />
    <vehicle id="S_E_133" type="standard_car" route="S_E" depart="600.0" departLane="random" departSpeed="10" />
    <vehicle id="S_E_134" type="standard_car" route="S_E" depart="600.0" departLane="random" departSpeed="10" />
    <vehicle id="N_E_135" type="standard_car" route="N_E" depart="600.0" departLane="random" departSpeed="10" />
    <vehicle id="N_E_136" type="standard_car" route="N_E" depart="600.0" departLane="random" departSpeed="10" />
    <vehicle id="S_W_137" type="standard_car" route="S_W" depart="600.0" departLane="random" departSpeed="10" />
    <vehicle id="W_S_138" type="standard_car" route="W_S" depart="600.0" departLane="random" departSpeed="10" />
    <vehicle id="E_N_139" type="standard_car" route="E_S" depart="600.0" departLane="random" departSpeed="10" />
    <vehicle id="N_W_140" type="standard_car" route="N_W" depart="600.0" departLane="random" departSpeed="10" />
    <vehicle id="S_E_141" type="standard_car" route="S_E" depart="600.0" departLane="random" departSpeed="10" />
    <vehicle id="N_W_142" type="standard_car" route="N_W" depart="600.0" departLane="random" departSpeed="10" />
    <vehicle id="N_E_143" type="standard_car" route="N_E" depart="600.0" departLane="random" departSpeed="10" />
    <vehicle id="N_E_144" type="standard_car" route="N_E" depart="600.0" departLane="random" departSpeed="10" />
    <vehicle id="N_E_145" type="standard_car" route="N_E" depart="600.0" departLane="random" departSpeed="10" />
    <vehicle id="S_N_146" type="standard_car" route="S_N" depart="600.0" departLane="random" departSpeed="10" />
    <vehicle id="W_E_147" type="standard_car" route="W_E" depart="600.0" departLane="random" departSpeed="10" />
    <vehicle id="W_N_148" type="standard_car" route="W_N" depart="600.0" departLane="random" departSpeed="10" />
    <vehicle id="N_E_149" type="standard_car" route="N_E" depart="600.0" departLane="random" departSpeed="10" />
    <vehicle id="N_W_150" type="standard_car" route="N_W" depart="600.0" departLane="random" departSpeed="10" />
    <vehicle id="N_E_151" type="standard_car" route="N_E" depart="600.0" departLane="random" departSpeed="10" />
    <vehicle id="S_W_152" type="standard_car" route="S_W" depart="600.0" departLane="random" departSpeed="10" />
    <vehicle id="N_E_153" type="standard_car" route="N_E" depart="600.0" departLane="random" departSpeed="10" />
    <vehicle id="S_E_154" type="standard_car" route="S_E" depart="600.0" departLane="random" departSpeed="10" />
    <vehicle id="S_E_155" type="standard_car" route="S_E" depart="600.0" departLane="random" departSpeed="10" />
    <vehicle id="N_W_156" type="standard_car" route="N_W" depart="600.0" departLane="random" departSpeed="10" />
    <vehicle id="S_E_157" type="standard_car" route="S_E" depart="600.0" departLane="random" departSpeed="10" />
    <vehicle id="N_W_158" type="standard_car" route="N_W" depart="600.0" departLane="random" departSpeed="10" />
    <vehicle id="N_E_159" type="standard_car" route="N_E" depart="600.0" departLane="random" departSpeed="10" />
    <vehicle id="E_W_160" type="standard_car" route="E_W" depart="600.0" departLane="random" departSpeed="10" />
    <vehicle id="E_S_161" type="standard_car" route="E_S" depart="600.0" departLane="random" departSpeed="10" />
    <vehicle id="N_W_162" type="standard_car" route="N_W" depart="600.0" departLane="random" departSpeed="10" />
    <vehicle id="N_E_163" type="standard_car" route="N_E" depart="600.0" departLane="random" departSpeed="10" />
    <vehicle id="S_W_164" type="standard_car" route="S_W" depart="600.0" departLane="random" departSpeed="10" />
    <vehicle id="S_E_165" type="standard_car" route="S_E" depart="600.0" departLane="random" departSpeed="10" />
    <vehicle id="N_W_166" type="standard_car" route="N_W" depart="600.0" departLane="random" departSpeed="10" />
    <vehicle id="S_E_167" type="standard_car" route="S_E" depart="600.0" departLane="random" departSpeed="10" />
    <vehicle id="S_E_168" type="standard_car" route="S_E" depart="600.0" departLane="random" departSpeed="10" />
    <vehicle id="S_W_169" type="standard_car" route="S_W" depart="600.0" departLane="random" departSpeed="10" />
    <vehicle id="E_S_170" type="standard_car" route="E_S" depart="600.0" departLane="random" departSpeed="10" />
    <vehicle id="N_E_171" type="standard_car" route="N_E" depart="600.0" departLane="random" departSpeed="10" />
    <vehicle id="S_N_172" type="standard_car" route="S_N" depart="600.0" departLane="random" departSpeed="10" />
    <vehicle id="N_W_173" type="standard_car" route="N_W" depart="600.0" departLane="random" departSpeed="10" />
    <vehicle id="E_S_174" type="standard_car" route="E_S" depart="600.0" departLane="random" departSpeed="10" />
    <vehicle id="S_W_175" type="standard_car" route="S_W" depart="600.0" departLane="random" departSpeed="10" />
    <vehicle id="S_E_176" type="standard_car" route="S_E" depart="600.0" departLane="random" departSpeed="10" />
    <vehicle id="N_W_177" type="standard_car" route="N_W" depart="600.0" departLane="random" departSpeed="10" />
    <vehicle id="N_E_178" type="standard_car" route="N_E" depart="600.0" departLane="random" departSpeed="10" />
    <vehicle id="S_E_179" type="standard_car" route="S_E" depart="600.0" departLane="random" departSpeed="10" />
    <vehicle id="N_W_180" type="standard_car" route="N_W" depart="600.0" departLane="random" departSpeed="10" />
    <vehicle id="S_E_181" type="standard_car" route="S_E" depart="600.0" departLane="random" departSpeed="10" />
    <vehicle id="S_W_182" type="standard_car" route="S_W" depart="600.0" departLane="random" departSpeed="10" />
    <vehicle id="E_N_183" type="standard_car" route="E_S" depart="600.0" departLane="random" departSpeed="10" />
    <vehicle id="E_N_184" type="standard_car" route="E_S" depart="600.0" departLane="random" departSpeed="10" />
    <vehicle id="N_E_185" type="standard_car" route="N_E" depart="600.0" departLane="random" departSpeed="10" />
    <vehicle id="S_E_186" type="standard_car" route="S_E" depart="600.0" departLane="random" departSpeed="10" />
    <vehicle id="S_E_187" type="standard_car" route="S_E" depart="600.0" departLane="random" departSpeed="10" />
    <vehicle id="S_N_188" type="standard_car" route="S_N" depart="600.0" departLane="random" departSpeed="10" />
    <vehicle id="N_W_189" type="standard_car" route="N_W" depart="600.0" departLane="random" departSpeed="10" />
    <vehicle id="W_N_190" type="standard_car" route="W_N" depart="600.0" departLane="random" departSpeed="10" />
    <vehicle id="E_S_191" type="standard_car" route="E_S" depart="600.0" departLane="random" departSpeed="10" />
    <vehicle id="E_W_192" type="standard_car" route="E_W" depart="600.0" departLane="random" departSpeed="10" />
    <vehicle id="S_E_193" type="standard_car" route="S_E" depart="600.0" departLane="random" departSpeed="10" />
    <vehicle id="S_E_194" type="standard_car" route="S_E" depart="600.0" departLane="random" departSpeed="10" />
    <vehicle id="E_N_195" type="standard_car" route="E_S" depart="600.0" departLane="random" departSpeed="10" />
    <vehicle id="E_N_196" type="standard_car" route="E_S" depart="600.0" departLane="random" departSpeed="10" />
    <vehicle id="E_W_197" type="standard_car" route="E_W" depart="600.0" departLane="random" departSpeed="10" />
    <vehicle id="S_E_198" type="standard_car" route="S_E" depart="600.0" departLane="random" departSpeed="10" />
    <vehicle id="N_W_199" type="standard_car" route="N_W" depart="600.0" departLane="random" departSpeed="10" />
    <vehicle id="S_E_200" type="standard_car" route="S_E" depart="600.0" departLane="random" departSpeed="10" />
    <vehicle id="S_E_201" type="standard_car" route="S_E" depart="600.0" departLane="random" departSpeed="10" />
    <vehicle id="S_W_202" type="standard_car" route="S_W" depart="600.0" departLane="random" departSpeed="10" />
    <vehicle id="N_W_203" type="standard_car" route="N_W" depart="600.0" departLane="random" departSpeed="10" />
    <vehicle id="S_W_204" type="standard_car" route="S_W" depart="600.0" departLane="random" departSpeed="10" />
    <vehicle id="E_W_205" type="standard_car" route="E_W" depart="600.0" departLane="random" departSpeed="10" />
    <vehicle id="S_E_206" type="standard_car" route="S_E" depart="600.0" departLane="random" departSpeed="10" />
    <vehicle id="S_E_207" type="standard_car" route="S_E" depart="600.0" departLane="random" departSpeed="10" />
    <vehicle id="N_W_208" type="standard_car" route="N_W" depart="600.0" departLane="random" departSpeed="10" />
    <vehicle id="N_W_209" type="standard_car" route="N_W" depart="1200.0" departLane="random" departSpeed="10" />
    <vehicle id="N_E_210" type="standard_car" route="N_E" depart="1200.0" departLane="random" departSpeed="10" />
    <vehicle id="N_E_211" type="standard_car" route="N_E" depart="1200.0" departLane="random" departSpeed="10" />
    <vehicle id="N_W_212" type="standard_car" route="N_W" depart="1200.0" departLane="random" departSpeed="10" />
    <vehicle id="S_E_213" type="standard_car" route="S_E" depart="1200.0" departLane="random" departSpeed="10" />
    <vehicle id="S_E_214" type="standard_car" route="S_E" depart="1200.0" departLane="random" departSpeed="10" />
    <vehicle id="E_N_215" type="standard_car" route="E_S" depart="1200.0" departLane="random" departSpeed="10" />
    <vehicle id="S_E_216" type="standard_car" route="S_E" depart="1200.0" departLane="random" departSpeed="10" />
    <vehicle id="N_W_217" type="standard_car" route="N_W" depart="1200.0" departLane="random" departSpeed="10" />
    <vehicle id="N_W_218" type="standard_car" route="N_W" depart="1200.0" departLane="random" departSpeed="10" />
    <vehicle id="S_E_219" type="standard_car" route="S_E" depart="1200.0" departLane="random" departSpeed="10" />
    <vehicle id="S_W_220" type="standard_car" route="S_W" depart="1200.0" departLane="random" departSpeed="10" />
    <vehicle id="S_E_221" type="standard_car" route="S_E" depart="1200.0" departLane="random" departSpeed="10" />
    <vehicle id="N_E_222" type="standard_car" route="N_E" depart="1200.0" departLane="random" departSpeed="10" />
    <vehicle id="S_E_223" type="standard_car" route="S_E" depart="1200.0" departLane="random" departSpeed="10" />
    <vehicle id="S_W_224" type="standard_car" route="S_W" depart="1200.0" departLane="random" departSpeed="10" />
    <vehicle id="S_W_225" type="standard_car" route="S_W" depart="1200.0" departLane="random" departSpeed="10" />
    <vehicle id="N_E_226" type="standard_car" route="N_E" depart="1200.0" departLane="random" departSpeed="10" />
    <vehicle id="N_S_227" type="standard_car" route="N_S" depart="1200.0" departLane="random" departSpeed="10" />
    <vehicle id="N_W_228" type="standard_car" route="N_W" depart="1200.0" departLane="random" departSpeed="10" />
    <vehicle id="N_W_229" type="standard_car" route="N_W" depart="1200.0" departLane="random" departSpeed="10" />
    <vehicle id="S_W_230" type="standard_car" route="S_W" depart="1200.0" departLane="random" departSpeed="10" />
    <vehicle id="S_E_231" type="standard_car" route="S_E" depart="1200.0" departLane="random" departSpeed="10" />
    <vehicle id="S_W_232" type="standard_car" route="S_W" depart="1200.0" departLane="random" departSpeed="10" />
    <vehicle id="N_W_233" type="standard_car" route="N_W" depart="1200.0" departLane="random" departSpeed="10" />
    <vehicle id="N_E_234" type="standard_car" route="N_E" depart="1200.0" departLane="random" departSpeed="10" />
    <vehicle id="S_W_235" type="standard_car" route="S_W" depart="1200.0" departLane="random" departSpeed="10" />
    <vehicle id="S_W_236" type="standard_car" route="S_W" depart="1200.0" departLane="random" departSpeed="10" />
    <vehicle id="W_N_237" type="standard_car" route="W_N" depart="1200.0" departLane="random" departSpeed="10" />
    <vehicle id="S_W_238" type="standard_car" route="S_W" depart="1200.0" departLane="random" departSpeed="10" />
    <vehicle id="N_S_239" type="standard_car" route="N_S" depart="1200.0" departLane="random" departSpeed="10" />
    <vehicle id="N_W_240" type="standard_car" route="N_W" depart="1200.0" departLane="random" departSpeed="10" />
    <vehicle id="S_W_241" type="standard_car" route="S_W" depart="1200.0" departLane="random" departSpeed="10" />
    <vehicle id="N_W_242" type="standard_car" route="N_W" depart="1200.0" departLane="random" departSpeed="10" />
    <vehicle id="S_E_243" type="standard_car" route="S_E" depart="1200.0" departLane="random" departSpeed="10" />
    <vehicle id="N_E_244" type="standard_car" route="N_E" depart="1200.0" departLane="random" departSpeed="10" />
    <vehicle id="N_E_245" type="standard_car" route="N_E" depart="1200.0" departLane="random" departSpeed="10" />
    <vehicle id="N_E_246" type="standard_car" route="N_E" depart="1200.0" departLane="random" departSpeed="10" />
    <vehicle id="N_E_247" type="standard_car" route="N_E" depart="1200.0" departLane="random" departSpeed="10" />
    <vehicle id="S_E_248" type="standard_car" route="S_E" depart="1200.0" departLane="random" departSpeed="10" />
    <vehicle id="N_E_249" type="standard_car" route="N_E" depart="1200.0" departLane="random" departSpeed="10" />
    <vehicle id="N_E_250" type="standard_car" route="N_E" depart="1200.0" departLane="random" departSpeed="10" />
    <vehicle id="N_W_251" type="standard_car" route="N_W" depart="1200.0" departLane="random" departSpeed="10" />
    <vehicle id="N_S_252" type="standard_car" route="N_S" depart="1200.0" departLane="random" departSpeed="10" />
    <vehicle id="S_E_253" type="standard_car" route="S_E" depart="1200.0" departLane="random" departSpeed="10" />
    <vehicle id="E_W_254" type="standard_car" route="E_W" depart="1200.0" departLane="random" departSpeed="10" />
    <vehicle id="E_N_255" type="standard_car" route="E_S" depart="1200.0" departLane="random" departSpeed="10" />
    <vehicle id="S_W_256" type="standard_car" route="S_W" depart="1200.0" departLane="random" departSpeed="10" />
    <vehicle id="S_E_257" type="standard_car" route="S_E" depart="1200.0" departLane="random" departSpeed="10" />
    <vehicle id="N_W_258" type="standard_car" route="N_W" depart="1200.0" departLane="random" departSpeed="10" />